Header
  CHECK KEYWORDS Warn
  Mesh DB "." "."
  Include Path ""
  Results Directory ""
End

Simulation
  Max Output Level = 5
  Coordinate System = Cartesian
  Coordinate Mapping(3) = 1 2 3
  Simulation Type = Transient
Timestep intervals = 2
Timestep sizes = .5
  Steady State Max Iterations = 1
  Output Intervals(1) = 1
  Solver Input File = case.sif
  Post File = differ.vtu
End

Constants
  Gravity(4) = 0 -1 0 9.82
  Stefan Boltzmann = 5.670374419e-08
  Permittivity of Vacuum = 8.85418781e-12
  Permeability of Vacuum = 1.25663706e-6
  Boltzmann Constant = 1.380649e-23
  Unit Charge = 1.6021766e-19
End

Body 1
  Target Bodies(1) = 1
  Name = "Body 1"
  Equation = 1
  Material = 2
End

Body 2
  Target Bodies(1) = 2
  Name = "Body 2"
  Equation = 1
  Material = 1
End

Solver 1
  Equation = Nonlinear elasticity
  Calculate Loads = True
  Procedure = "ElasticSolve" "ElasticSolver"
  Calculate Stresses = True
  Variable = -dofs 3 Displacement
  Exec Solver = Always
  Stabilize = True
  Optimize Bandwidth = True
  Steady State Convergence Tolerance = 1.0e-5
  Nonlinear System Convergence Tolerance = 1.0e-7
  Nonlinear System Max Iterations = 1
  Nonlinear System Newton After Iterations = 3
  Nonlinear System Newton After Tolerance = 1.0e-3
  Nonlinear System Relaxation Factor = 1
  Linear System Solver = Direct
  Linear System Direct Method = MUMPS
Apply Contact BCs = Logical True
Edge Basis = Logical True
End

Equation 1
  Name = "Equation 1"
  Active Solvers(1) = 1
End

Material 1
  Name = "Material 1"
  Density = 100
  Youngs modulus = 1.E6
  Poisson ratio = .3
End

Material 2
  Name = "Material 2"
  Density = 1000
  Youngs modulus = 1.E9
  Poisson ratio = .3
End

Boundary Condition 1
  Target Boundaries(1) = 2 
  Name = "BoundaryCondition 1"
!  Displacement 1 = 0
!  Displacement 2 = 0
  Displacement 3 = 0
End

Boundary Condition 2
  Target Boundaries(1) = 1 
  Name = "Contact"
Mortar BC = 3
  Plane Projector = True
  Galerkin Projector = Logical True
  Static Friction Coefficient = Real .001
  Dynamic Friction Coefficient = Real .001
!  Friction Contact = Logical True
  Slip Contact = Logical True
  Mortar BC Nonlinear = Logical True
  Mass Consistent Normals = Logical True
 Contact Velocity(3) = Real 0.0 0.0 0.0
Contact Active Condition = Real 1.0
End

Boundary Condition 3
  Target Boundaries(1) = 3 
  Name = "Slave"
  Mass Consistent Normals = Logical True
End

Boundary Condition 4
  Target Boundaries(1) = 4 
  Name = "BoundaryCondition 4"
  Normal Force = -10
End
