SUMMARY OF JOB INFORMATION
  STEP      INC     ATT  ITRS     TOT TIME     STEP TIME      INC TIME
     1          1     1     3  0.100000E+00  0.100000E+00  0.100000E+00
     1          2     1     2  0.200000E+00  0.200000E+00  0.100000E+00
     1          3     1     2  0.350000E+00  0.350000E+00  0.150000E+00
     1          4     1     2  0.575000E+00  0.575000E+00  0.225000E+00
     1          5     1     2  0.912500E+00  0.912500E+00  0.337500E+00
     1          6     1     2  0.100000E+01  0.100000E+01  0.875000E-01
